#======================================================================

# CRYSTAL DATA

#----------------------------------------------------------------------

data_VESTA_phase_1


_chemical_name_common                  'CONTCAR\(7)                           '
_cell_length_a                         13.50870
_cell_length_b                         7.95540
_cell_length_c                         20.16170
_cell_angle_alpha                      90
_cell_angle_beta                       90
_cell_angle_gamma                      89.99971
_space_group_name_H-M_alt              'P 1'
_space_group_IT_number                 1

loop_
_space_group_symop_operation_xyz
   'x, y, z'

loop_
   _atom_site_label
   _atom_site_occupancy
   _atom_site_fract_x
   _atom_site_fract_y
   _atom_site_fract_z
   _atom_site_adp_type
   _atom_site_B_iso_or_equiv
   _atom_site_type_symbol
   In1        1.0     0.099458      0.240667      0.595015     Biso  1.000000 In
   In2        1.0     0.584527      0.752322      0.589203     Biso  1.000000 In
   In3        1.0     0.167388      0.500742      0.791256     Biso  1.000000 In
   In4        1.0     0.666957      0.000774      0.787315     Biso  1.000000 In
   In5        1.0     0.337700      0.500221      0.590344     Biso  1.000000 In
   In6        1.0     0.835531      0.000240      0.588920     Biso  1.000000 In
   In7        1.0     0.417502      0.751047      0.788817     Biso  1.000000 In
   In8        1.0     0.915763      0.249982      0.787978     Biso  1.000000 In
   In9        1.0     0.099423      0.759421      0.594956     Biso  1.000000 In
   In10       1.0     0.584537      0.248248      0.589205     Biso  1.000000 In
   In11       1.0     0.166223      0.000748      0.793252     Biso  1.000000 In
   In12       1.0     0.667342      0.500769      0.785021     Biso  1.000000 In
   In13       1.0     0.341533      0.000220      0.591724     Biso  1.000000 In
   In14       1.0     0.829976      0.500248      0.585392     Biso  1.000000 In
   In15       1.0     0.417505      0.250530      0.788844     Biso  1.000000 In
   In16       1.0     0.915741      0.751447      0.787912     Biso  1.000000 In
   S1         1.0     0.008394      0.000150      0.537279     Biso  1.000000 S
   S2         1.0     0.503917      0.500300      0.533788     Biso  1.000000 S
   S3         1.0     0.084867      0.249413      0.712754     Biso  1.000000 S
   S4         1.0     0.582559      0.751666      0.708104     Biso  1.000000 S
   S5         1.0    -0.003115      0.000658      0.849257     Biso  1.000000 S
   S6         1.0     0.500994      0.500795      0.846639     Biso  1.000000 S
   S7         1.0     0.260080      0.246590      0.533763     Biso  1.000000 S
   S8         1.0     0.748458      0.756944      0.532330     Biso  1.000000 S
   S9         1.0     0.332511      0.500646      0.709347     Biso  1.000000 S
   S10        1.0     0.834430      0.000659      0.708221     Biso  1.000000 S
   S11        1.0     0.251168      0.251321      0.849919     Biso  1.000000 S
   S12        1.0     0.748551      0.749197      0.846004     Biso  1.000000 S
   S13        1.0    -0.026146      0.500000      0.509174     Biso  1.000000 S
   S14        1.0     0.503236      0.000300      0.532281     Biso  1.000000 S
   S15        1.0     0.084864      0.751765      0.712715     Biso  1.000000 S
   S16        1.0     0.582554      0.249723      0.708111     Biso  1.000000 S
   S17        1.0    -0.002478      0.500741      0.847334     Biso  1.000000 S
   S18        1.0     0.500482      0.000767      0.847732     Biso  1.000000 S
   S19        1.0     0.260081      0.753864      0.533748     Biso  1.000000 S
   S20        1.0     0.748452      0.243577      0.532332     Biso  1.000000 S
   S21        1.0     0.332859      0.000675      0.710366     Biso  1.000000 S
   S22        1.0     0.835398      0.500602      0.704896     Biso  1.000000 S
   S23        1.0     0.251172      0.750158      0.849903     Biso  1.000000 S
   S24        1.0     0.748550      0.252304      0.846017     Biso  1.000000 S
   O1         1.0     0.069517      0.500000      0.565062     Biso  1.000000 O
