#======================================================================

# CRYSTAL DATA

#----------------------------------------------------------------------

data_VESTA_phase_1


_chemical_name_common                  'Se_mono_O_up                          '
_cell_length_a                         8.26460
_cell_length_b                         14.03400
_cell_length_c                         40.00000
_cell_angle_alpha                      90
_cell_angle_beta                       90
_cell_angle_gamma                      90.00250
_space_group_name_H-M_alt              'P 1'
_space_group_IT_number                 1

loop_
_space_group_symop_operation_xyz
   'x, y, z'

loop_
   _atom_site_label
   _atom_site_occupancy
   _atom_site_fract_x
   _atom_site_fract_y
   _atom_site_fract_z
   _atom_site_adp_type
   _atom_site_B_iso_or_equiv
   _atom_site_type_symbol
   Se1        1.0     0.245760      0.911081      0.529380     Biso  1.000000 Se
   Se2        1.0     0.744933      0.413026      0.530203     Biso  1.000000 Se
   Se3        1.0     0.242612      0.078420      0.602522     Biso  1.000000 Se
   Se4        1.0     0.746971      0.578672      0.604713     Biso  1.000000 Se
   Se5        1.0     0.242825      0.903386      0.699403     Biso  1.000000 Se
   Se6        1.0     0.765176      0.414827      0.699058     Biso  1.000000 Se
   Se7        1.0     0.497278      0.663411      0.530496     Biso  1.000000 Se
   Se8        1.0     0.990555      0.164117      0.528979     Biso  1.000000 Se
   Se9        1.0     0.496061      0.829315      0.605064     Biso  1.000000 Se
   Se10       1.0     0.998050      0.329109      0.604164     Biso  1.000000 Se
   Se11       1.0     0.019556      0.161644      0.698412     Biso  1.000000 Se
   Se12       1.0     0.504356      0.662880      0.698791     Biso  1.000000 Se
   Se13       1.0     0.493919      0.163262      0.530354     Biso  1.000000 Se
   Se14       1.0     0.994868      0.663434      0.530009     Biso  1.000000 Se
   Se15       1.0     0.494825      0.327751      0.604558     Biso  1.000000 Se
   Se16       1.0     0.996269      0.828832      0.604370     Biso  1.000000 Se
   Se17       1.0     0.001991      0.660911      0.699354     Biso  1.000000 Se
   Se18       1.0     0.549445      0.187066      0.706745     Biso  1.000000 Se
   Se19       1.0     0.245959      0.415628      0.529608     Biso  1.000000 Se
   Se20       1.0     0.744497      0.913920      0.530387     Biso  1.000000 Se
   Se21       1.0     0.246370      0.579077      0.604474     Biso  1.000000 Se
   Se22       1.0     0.745852      0.080313      0.604811     Biso  1.000000 Se
   Se23       1.0     0.258219      0.415481      0.698367     Biso  1.000000 Se
   Se24       1.0     0.753391      0.912253      0.699447     Biso  1.000000 Se
   In1        1.0     0.496031      0.495529      0.563353     Biso  1.000000 In
   In2        1.0     0.996940     -0.003593      0.561971     Biso  1.000000 In
   In3        1.0     0.236375      0.063696      0.665257     Biso  1.000000 In
   In4        1.0     0.754206      0.581223      0.667872     Biso  1.000000 In
   In5        1.0     0.245417      0.744884      0.562972     Biso  1.000000 In
   In6        1.0     0.743876      0.245911      0.563419     Biso  1.000000 In
   In7        1.0     0.012593      0.329758      0.667467     Biso  1.000000 In
   In8        1.0     0.501665      0.832300      0.668442     Biso  1.000000 In
   In9        1.0     0.240166      0.247205      0.561168     Biso  1.000000 In
   In10       1.0     0.746430      0.746189      0.563473     Biso  1.000000 In
   In11       1.0    -0.004617      0.825607      0.667563     Biso  1.000000 In
   In12       1.0     0.513003      0.337383      0.667437     Biso  1.000000 In
   In13       1.0     0.492612      0.994697      0.563119     Biso  1.000000 In
   In14       1.0     0.994554      0.496141      0.562821     Biso  1.000000 In
   In15       1.0     0.253504      0.582653      0.667700     Biso  1.000000 In
   In16       1.0     0.756587      0.079224      0.668065     Biso  1.000000 In
   O1         1.0     0.479121      0.084798      0.680971     Biso  1.000000 O
