#======================================================================

# CRYSTAL DATA

#----------------------------------------------------------------------

data_VESTA_phase_1


_chemical_name_common                  'S_tri_O_dn                            '
_cell_length_a                         13.50980
_cell_length_b                         7.95570
_cell_length_c                         47.75650
_cell_angle_alpha                      90
_cell_angle_beta                       90
_cell_angle_gamma                      90.00010
_space_group_name_H-M_alt              'P 1'
_space_group_IT_number                 1

loop_
_space_group_symop_operation_xyz
   'x, y, z'

loop_
   _atom_site_label
   _atom_site_occupancy
   _atom_site_fract_x
   _atom_site_fract_y
   _atom_site_fract_z
   _atom_site_adp_type
   _atom_site_B_iso_or_equiv
   _atom_site_type_symbol
   In1        1.0     0.251886      0.750848      0.257070     Biso  1.000000 In
   In2        1.0     0.751879      0.250827      0.257099     Biso  1.000000 In
   In3        1.0     0.422093      0.750798      0.446996     Biso  1.000000 In
   In4        1.0     0.921969      0.250814      0.446875     Biso  1.000000 In
   In5        1.0     0.092568      0.249634      0.636272     Biso  1.000000 In
   In6        1.0     0.592474      0.747036      0.639098     Biso  1.000000 In
   In7        1.0     0.165397      0.000708      0.340575     Biso  1.000000 In
   In8        1.0     0.665361      0.500705      0.340610     Biso  1.000000 In
   In9        1.0     0.334575      0.000461      0.530354     Biso  1.000000 In
   In10       1.0     0.834326      0.500455      0.530309     Biso  1.000000 In
   In11       1.0     0.493508      0.000047      0.723550     Biso  1.000000 In
   In12       1.0     0.995423      0.500060      0.719902     Biso  1.000000 In
   In13       1.0     0.251886      0.250852      0.257070     Biso  1.000000 In
   In14       1.0     0.751880      0.750828      0.257099     Biso  1.000000 In
   In15       1.0     0.422094      0.250812      0.446996     Biso  1.000000 In
   In16       1.0     0.921970      0.750814      0.446876     Biso  1.000000 In
   In17       1.0     0.092573      0.750760      0.636267     Biso  1.000000 In
   In18       1.0     0.592492      0.253422      0.639095     Biso  1.000000 In
   In19       1.0     0.165399      0.500708      0.340576     Biso  1.000000 In
   In20       1.0     0.665363      0.000706      0.340609     Biso  1.000000 In
   In21       1.0     0.334614      0.500458      0.530310     Biso  1.000000 In
   In22       1.0     0.834462      0.000451      0.530161     Biso  1.000000 In
   In23       1.0     0.476144      0.500049      0.721851     Biso  1.000000 In
   In24       1.0     0.994920      0.000059      0.720178     Biso  1.000000 In
   In25       1.0     0.501884      0.500787      0.257071     Biso  1.000000 In
   In26       1.0     0.001880      0.000792      0.257089     Biso  1.000000 In
   In27       1.0     0.172135      0.000873      0.446800     Biso  1.000000 In
   In28       1.0     0.672078      0.500760      0.447129     Biso  1.000000 In
   In29       1.0     0.341339      0.000245      0.637824     Biso  1.000000 In
   In30       1.0     0.843298      0.500208      0.634330     Biso  1.000000 In
   In31       1.0     0.415355      0.750770      0.340551     Biso  1.000000 In
   In32       1.0     0.915334      0.250761      0.340581     Biso  1.000000 In
   In33       1.0     0.084836      0.250419      0.530070     Biso  1.000000 In
   In34       1.0     0.584202      0.750541      0.530617     Biso  1.000000 In
   In35       1.0     0.239274      0.245366      0.720869     Biso  1.000000 In
   In36       1.0     0.751789      0.756830      0.715987     Biso  1.000000 In
   In37       1.0     0.501884      0.000788      0.257070     Biso  1.000000 In
   In38       1.0     0.001881      0.500793      0.257089     Biso  1.000000 In
   In39       1.0     0.172114      0.500873      0.446793     Biso  1.000000 In
   In40       1.0     0.672019      0.000748      0.447087     Biso  1.000000 In
   In41       1.0     0.342274      0.500238      0.637117     Biso  1.000000 In
   In42       1.0     0.842346      0.000220      0.633614     Biso  1.000000 In
   In43       1.0     0.415355      0.250770      0.340551     Biso  1.000000 In
   In44       1.0     0.915334      0.750759      0.340581     Biso  1.000000 In
   In45       1.0     0.084835      0.750407      0.530070     Biso  1.000000 In
   In46       1.0     0.584205      0.250464      0.530616     Biso  1.000000 In
   In47       1.0     0.239277      0.754726      0.720865     Biso  1.000000 In
   In48       1.0     0.751778      0.243286      0.715988     Biso  1.000000 In
   S1         1.0     0.333878      0.500837      0.233782     Biso  1.000000 S
   S2         1.0     0.833866      0.000817      0.233809     Biso  1.000000 S
   S3         1.0     0.003848      0.000800      0.423951     Biso  1.000000 S
   S4         1.0     0.504082      0.500790      0.424103     Biso  1.000000 S
   S5         1.0     0.175358      0.000215      0.613499     Biso  1.000000 S
   S6         1.0     0.670981      0.500241      0.614219     Biso  1.000000 S
   S7         1.0     0.249394      0.750755      0.307584     Biso  1.000000 S
   S8         1.0     0.749411      0.250757      0.307614     Biso  1.000000 S
   S9         1.0     0.418837      0.750538      0.497523     Biso  1.000000 S
   S10        1.0     0.918501      0.250639      0.497407     Biso  1.000000 S
   S11        1.0     0.080236      0.248202      0.686615     Biso  1.000000 S
   S12        1.0     0.580578      0.741700      0.689707     Biso  1.000000 S
   S13        1.0     0.332997      0.500773      0.365817     Biso  1.000000 S
   S14        1.0     0.832955      0.000759      0.365855     Biso  1.000000 S
   S15        1.0     0.002473      0.000417      0.555343     Biso  1.000000 S
   S16        1.0     0.501720      0.500485      0.555836     Biso  1.000000 S
   S17        1.0     0.156705      0.000044      0.746621     Biso  1.000000 S
   S18        1.0     0.618391      0.500082      0.756455     Biso  1.000000 S
   S19        1.0     0.333876      0.000838      0.233783     Biso  1.000000 S
   S20        1.0     0.833867      0.500815      0.233810     Biso  1.000000 S
   S21        1.0     0.003835      0.500802      0.423944     Biso  1.000000 S
   S22        1.0     0.503999      0.000788      0.424081     Biso  1.000000 S
   S23        1.0     0.174750      0.500197      0.613613     Biso  1.000000 S
   S24        1.0     0.668316      0.000219      0.615117     Biso  1.000000 S
   S25        1.0     0.249397      0.250759      0.307584     Biso  1.000000 S
   S26        1.0     0.749409      0.750760      0.307614     Biso  1.000000 S
   S27        1.0     0.418834      0.250529      0.497523     Biso  1.000000 S
   S28        1.0     0.918503      0.750400      0.497407     Biso  1.000000 S
   S29        1.0     0.080232      0.751972      0.686611     Biso  1.000000 S
   S30        1.0     0.580584      0.258469      0.689705     Biso  1.000000 S
   S31        1.0     0.332992      0.000773      0.365815     Biso  1.000000 S
   S32        1.0     0.832956      0.500760      0.365853     Biso  1.000000 S
   S33        1.0     0.002469      0.500417      0.555361     Biso  1.000000 S
   S34        1.0     0.501699      0.000490      0.555828     Biso  1.000000 S
   S35        1.0     0.159870      0.500055      0.745681     Biso  1.000000 S
   S36        1.0     0.667859      0.000054      0.744415     Biso  1.000000 S
   S37        1.0     0.083857      0.750789      0.233797     Biso  1.000000 S
   S38        1.0     0.583903      0.250783      0.233792     Biso  1.000000 S
   S39        1.0     0.254134      0.750842      0.423930     Biso  1.000000 S
   S40        1.0     0.753634      0.250792      0.424085     Biso  1.000000 S
   S41        1.0     0.425588      0.750934      0.615187     Biso  1.000000 S
   S42        1.0     0.925930      0.250445      0.611863     Biso  1.000000 S
   S43        1.0     0.499442      0.500761      0.307586     Biso  1.000000 S
   S44        1.0     0.999414      0.000764      0.307605     Biso  1.000000 S
   S45        1.0     0.168922      0.000509      0.497334     Biso  1.000000 S
   S46        1.0     0.668550      0.500546      0.497680     Biso  1.000000 S
   S47        1.0     0.332859      0.000083      0.688134     Biso  1.000000 S
   S48        1.0     0.836476      0.500088      0.684723     Biso  1.000000 S
   S49        1.0     0.082971      0.750726      0.365826     Biso  1.000000 S
   S50        1.0     0.582896      0.250719      0.365838     Biso  1.000000 S
   S51        1.0     0.252154      0.750359      0.555593     Biso  1.000000 S
   S52        1.0     0.752147      0.250130      0.555779     Biso  1.000000 S
   S53        1.0     0.402288      0.756621      0.747404     Biso  1.000000 S
   S54        1.0     0.910388      0.249973      0.744320     Biso  1.000000 S
   S55        1.0     0.083857      0.250789      0.233797     Biso  1.000000 S
   S56        1.0     0.583903      0.750781      0.233792     Biso  1.000000 S
   S57        1.0     0.254133      0.250846      0.423931     Biso  1.000000 S
   S58        1.0     0.753639      0.750716      0.424083     Biso  1.000000 S
   S59        1.0     0.425595      0.249542      0.615187     Biso  1.000000 S
   S60        1.0     0.925923      0.749987      0.611864     Biso  1.000000 S
   S61        1.0     0.499442      0.000760      0.307585     Biso  1.000000 S
   S62        1.0     0.999416      0.500765      0.307605     Biso  1.000000 S
   S63        1.0     0.168882      0.500510      0.497327     Biso  1.000000 S
   S64        1.0     0.668491      0.000539      0.497631     Biso  1.000000 S
   S65        1.0     0.324753      0.500102      0.687463     Biso  1.000000 S
   S66        1.0     0.835177      0.000083      0.684294     Biso  1.000000 S
   S67        1.0     0.082970      0.250724      0.365826     Biso  1.000000 S
   S68        1.0     0.582897      0.750723      0.365838     Biso  1.000000 S
   S69        1.0     0.252156      0.250544      0.555594     Biso  1.000000 S
   S70        1.0     0.752145      0.750783      0.555780     Biso  1.000000 S
   S71        1.0     0.402291      0.243492      0.747404     Biso  1.000000 S
   S72        1.0     0.910394      0.750153      0.744323     Biso  1.000000 S
   O1         1.0     0.716750      0.500060      0.736606     Biso  1.000000 O
