#======================================================================

# CRYSTAL DATA

#----------------------------------------------------------------------

data_VESTA_phase_1


_chemical_name_common                  'CONTCAR\(2)                           '
_cell_length_a                         8.83890
_cell_length_b                         15.00940
_cell_length_c                         48.00000
_cell_angle_alpha                      90
_cell_angle_beta                       90
_cell_angle_gamma                      90.00234
_space_group_name_H-M_alt              'P 1'
_space_group_IT_number                 1

loop_
_space_group_symop_operation_xyz
   'x, y, z'

loop_
   _atom_site_label
   _atom_site_occupancy
   _atom_site_fract_x
   _atom_site_fract_y
   _atom_site_fract_z
   _atom_site_adp_type
   _atom_site_B_iso_or_equiv
   _atom_site_type_symbol
   Te1        1.0     0.000028      0.339386      0.417261     Biso  1.000000 Te
   Te2        1.0     0.240850      0.089494      0.414684     Biso  1.000000 Te
   Te3        1.0     0.000355      0.318852      0.570038     Biso  1.000000 Te
   Te4        1.0     0.253300      0.073017      0.568768     Biso  1.000000 Te
   Te5        1.0    -0.000003      0.000782      0.484113     Biso  1.000000 Te
   Te6        1.0     0.254008      0.250004      0.483701     Biso  1.000000 Te
   Te7        1.0     0.500038      0.345522      0.416651     Biso  1.000000 Te
   Te8        1.0     0.758903      0.089514      0.414689     Biso  1.000000 Te
   Te9        1.0     0.500340      0.321162      0.569867     Biso  1.000000 Te
   Te10       1.0     0.747050      0.073029      0.568780     Biso  1.000000 Te
   Te11       1.0     0.499980      0.014262      0.481682     Biso  1.000000 Te
   Te12       1.0     0.745962      0.249988      0.483716     Biso  1.000000 Te
   Te13       1.0    -0.000160      0.836502      0.418927     Biso  1.000000 Te
   Te14       1.0     0.248197      0.590619      0.419955     Biso  1.000000 Te
   Te15       1.0     0.000149      0.827400      0.571291     Biso  1.000000 Te
   Te16       1.0     0.247926      0.569848      0.572254     Biso  1.000000 Te
   Te17       1.0     0.000024      0.501888      0.486594     Biso  1.000000 Te
   Te18       1.0     0.254927      0.756398      0.487484     Biso  1.000000 Te
   Te19       1.0     0.499927      0.832999      0.418243     Biso  1.000000 Te
   Te20       1.0     0.751787      0.590598      0.419956     Biso  1.000000 Te
   Te21       1.0     0.500104      0.807131      0.575896     Biso  1.000000 Te
   Te22       1.0     0.752349      0.569868      0.572256     Biso  1.000000 Te
   Te23       1.0     0.500040      0.498389      0.486441     Biso  1.000000 Te
   Te24       1.0     0.745143      0.756409      0.487486     Biso  1.000000 Te
   In1        1.0     0.000133      0.993993      0.541316     Biso  1.000000 In
   In2        1.0     0.251169      0.240529      0.540772     Biso  1.000000 In
   In3        1.0    -0.000113      0.172643      0.448367     Biso  1.000000 In
   In4        1.0     0.246552      0.420795      0.448888     Biso  1.000000 In
   In5        1.0     0.500205      0.985385      0.538751     Biso  1.000000 In
   In6        1.0     0.749604      0.240525      0.540783     Biso  1.000000 In
   In7        1.0     0.499834      0.172689      0.441852     Biso  1.000000 In
   In8        1.0     0.753513      0.420777      0.448891     Biso  1.000000 In
   In9        1.0     0.000135      0.487789      0.543420     Biso  1.000000 In
   In10       1.0     0.244755      0.737253      0.544018     Biso  1.000000 In
   In11       1.0    -0.000012      0.673429      0.451600     Biso  1.000000 In
   In12       1.0     0.254207      0.925505      0.446802     Biso  1.000000 In
   In13       1.0     0.500136      0.491469      0.543395     Biso  1.000000 In
   In14       1.0     0.755429      0.737286      0.544020     Biso  1.000000 In
   In15       1.0     0.500010      0.668609      0.451330     Biso  1.000000 In
   In16       1.0     0.745644      0.925543      0.446811     Biso  1.000000 In
   H1         1.0     0.500045      0.706169      0.593628     Biso  1.000000 H
