#======================================================================

# CRYSTAL DATA

#----------------------------------------------------------------------

data_VESTA_phase_1


_chemical_name_common                  'CONTCAR\(3)                           '
_cell_length_a                         8.26460
_cell_length_b                         14.03400
_cell_length_c                         48.00000
_cell_angle_alpha                      90
_cell_angle_beta                       90
_cell_angle_gamma                      90.00250
_space_group_name_H-M_alt              'P 1'
_space_group_IT_number                 1

loop_
_space_group_symop_operation_xyz
   'x, y, z'

loop_
   _atom_site_label
   _atom_site_occupancy
   _atom_site_fract_x
   _atom_site_fract_y
   _atom_site_fract_z
   _atom_site_adp_type
   _atom_site_B_iso_or_equiv
   _atom_site_type_symbol
   Se1        1.0     0.000250      0.998545      0.224206     Biso  1.000000 Se
   Se2        1.0     0.258883      0.250350      0.227097     Biso  1.000000 Se
   Se3        1.0     0.000124      0.004896      0.366308     Biso  1.000000 Se
   Se4        1.0     0.246139      0.256920      0.366741     Biso  1.000000 Se
   Se5        1.0     0.000235      0.165804      0.287644     Biso  1.000000 Se
   Se6        1.0     0.256863      0.415385      0.287099     Biso  1.000000 Se
   Se7        1.0     0.500214      0.000766      0.225883     Biso  1.000000 Se
   Se8        1.0     0.741504      0.250330      0.227082     Biso  1.000000 Se
   Se9        1.0     0.500123      0.001415      0.367514     Biso  1.000000 Se
   Se10       1.0     0.754073      0.256907      0.366754     Biso  1.000000 Se
   Se11       1.0     0.500280      0.144001      0.291561     Biso  1.000000 Se
   Se12       1.0     0.743539      0.415370      0.287098     Biso  1.000000 Se
   Se13       1.0     0.000241      0.500551      0.226233     Biso  1.000000 Se
   Se14       1.0     0.250011      0.751099      0.225392     Biso  1.000000 Se
   Se15       1.0     0.000150      0.504104      0.365869     Biso  1.000000 Se
   Se16       1.0     0.251440      0.755900      0.366485     Biso  1.000000 Se
   Se17       1.0     0.000238      0.666596      0.288726     Biso  1.000000 Se
   Se18       1.0     0.247752      0.913995      0.287687     Biso  1.000000 Se
   Se19       1.0     0.500261      0.505362      0.225588     Biso  1.000000 Se
   Se20       1.0     0.750434      0.751115      0.225393     Biso  1.000000 Se
   Se21       1.0     0.500199      0.506183      0.366550     Biso  1.000000 Se
   Se22       1.0     0.748920      0.755905      0.366481     Biso  1.000000 Se
   Se23       1.0     0.500307      0.666182      0.287679     Biso  1.000000 Se
   Se24       1.0     0.752674      0.914053      0.287689     Biso  1.000000 Se
   In1        1.0     0.000080      0.172592      0.340759     Biso  1.000000 In
   In2        1.0     0.252787      0.424598      0.340632     Biso  1.000000 In
   In3        1.0     0.000161      0.330516      0.252867     Biso  1.000000 In
   In4        1.0     0.244274      0.078530      0.252764     Biso  1.000000 In
   In5        1.0     0.500110      0.172902      0.344176     Biso  1.000000 In
   In6        1.0     0.747574      0.424566      0.340633     Biso  1.000000 In
   In7        1.0     0.500221      0.303935      0.261964     Biso  1.000000 In
   In8        1.0     0.756229      0.078529      0.252752     Biso  1.000000 In
   In9        1.0     0.000173      0.673857      0.341993     Biso  1.000000 In
   In10       1.0     0.250325      0.923807      0.340798     Biso  1.000000 In
   In11       1.0     0.000237      0.832854      0.253061     Biso  1.000000 In
   In12       1.0     0.243768      0.587458      0.254321     Biso  1.000000 In
   In13       1.0     0.500173      0.673741      0.340916     Biso  1.000000 In
   In14       1.0     0.749944      0.923819      0.340797     Biso  1.000000 In
   In15       1.0     0.500230      0.833137      0.253366     Biso  1.000000 In
   In16       1.0     0.756784      0.587460      0.254318     Biso  1.000000 In
   H1         1.0     0.500304      0.573525      0.201844     Biso  1.000000 H
