
#======================================================================
# CRYSTAL DATA
#----------------------------------------------------------------------
data_VESTA_phase_1

_chemical_name_common                  'CONTCAR                               '
_cell_length_a                         8.108300
_cell_length_b                         8.108300
_cell_length_c                         40.000000
_cell_angle_alpha                      90.000000
_cell_angle_beta                       90.000000
_cell_angle_gamma                      120.000000
_cell_volume                           2277.457405
_space_group_name_H-M_alt              'P 1'
_space_group_IT_number                 1

loop_
_space_group_symop_operation_xyz
   'x, y, z'

loop_
   _atom_site_label
   _atom_site_occupancy
   _atom_site_fract_x
   _atom_site_fract_y
   _atom_site_fract_z
   _atom_site_adp_type
   _atom_site_U_iso_or_equiv
   _atom_site_type_symbol
   Se1        1.0     0.486918     0.243256     0.271803    Uiso  ? Se
   Se2        1.0     0.320709     0.410119     0.342102    Uiso  ? Se
   Se3        1.0     0.494785     0.247890     0.437561    Uiso  ? Se
   Se4        1.0     0.168881     0.084816     0.508358    Uiso  ? Se
   Se5        1.0     0.003170     0.251816     0.583444    Uiso  ? Se
   Se6        1.0     0.171960     0.085901     0.678808    Uiso  ? Se
   Se7        1.0     0.985659     0.242914     0.266493    Uiso  ? Se
   Se8        1.0     0.822385     0.411119     0.342310    Uiso  ? Se
   Se9        1.0    -0.002118     0.252863     0.438377    Uiso  ? Se
   Se10       1.0     0.668952     0.084807     0.508339    Uiso  ? Se
   Se11       1.0     0.503277     0.251925     0.583435    Uiso  ? Se
   Se12       1.0     0.672023     0.085943     0.678817    Uiso  ? Se
   Se13       1.0     0.487646     0.743691     0.266654    Uiso  ? Se
   Se14       1.0     0.320668     0.910255     0.342108    Uiso  ? Se
   Se15       1.0     0.490747     0.745994     0.438253    Uiso  ? Se
   Se16       1.0     0.168948     0.584895     0.508481    Uiso  ? Se
   Se17       1.0     0.003144     0.751917     0.583444    Uiso  ? Se
   Se18       1.0     0.172026     0.585934     0.678768    Uiso  ? Se
   Se19       1.0     0.985574     0.741991     0.266487    Uiso  ? Se
   Se20       1.0     0.822122     0.911023     0.345122    Uiso  ? Se
   Se21       1.0    -0.002421     0.746126     0.438376    Uiso  ? Se
   Se22       1.0     0.668928     0.584877     0.508344    Uiso  ? Se
   Se23       1.0     0.503277     0.751922     0.583449    Uiso  ? Se
   Se24       1.0     0.672014     0.585928     0.678814    Uiso  ? Se
   In1        1.0     0.662060     0.067504     0.302442    Uiso  ? In
   In2        1.0     0.329032     0.414538     0.405822    Uiso  ? In
   In3        1.0     0.835802     0.418292     0.542054    Uiso  ? In
   In4        1.0     0.005357     0.252551     0.647176    Uiso  ? In
   In5        1.0     0.134872     0.067040     0.301748    Uiso  ? In
   In6        1.0     0.827761     0.414416     0.406045    Uiso  ? In
   In7        1.0     0.335966     0.418275     0.542063    Uiso  ? In
   In8        1.0     0.505391     0.252618     0.647191    Uiso  ? In
   In9        1.0     0.662046     0.594246     0.302450    Uiso  ? In
   In10       1.0     0.328735     0.915494     0.405826    Uiso  ? In
   In11       1.0     0.835875     0.918338     0.542078    Uiso  ? In
   In12       1.0     0.005355     0.752636     0.647176    Uiso  ? In
   In13       1.0     0.153503     0.576421     0.300132    Uiso  ? In
   In14       1.0     0.828785     0.915090     0.409397    Uiso  ? In
   In15       1.0     0.336007     0.918532     0.542075    Uiso  ? In
   In16       1.0     0.505563     0.752716     0.647183    Uiso  ? In
   O1         1.0     0.488686     0.243926     0.229769    Uiso  ? O
