
#======================================================================
# CRYSTAL DATA
#----------------------------------------------------------------------
data_VESTA_phase_1

_chemical_name_common                  'CONTCAR                               '
_cell_length_a                         8.108300
_cell_length_b                         8.108300
_cell_length_c                         40.000000
_cell_angle_alpha                      90.000000
_cell_angle_beta                       90.000000
_cell_angle_gamma                      120.000000
_cell_volume                           2277.457405
_space_group_name_H-M_alt              'P 1'
_space_group_IT_number                 1

loop_
_space_group_symop_operation_xyz
   'x, y, z'

loop_
   _atom_site_label
   _atom_site_occupancy
   _atom_site_fract_x
   _atom_site_fract_y
   _atom_site_fract_z
   _atom_site_adp_type
   _atom_site_U_iso_or_equiv
   _atom_site_type_symbol
   Se1        1.0     0.391685     0.195069     0.255478    Uiso  ? Se
   Se2        1.0     0.309434     0.397695     0.341473    Uiso  ? Se
   Se3        1.0     0.509949     0.254176     0.437836    Uiso  ? Se
   Se4        1.0     0.177969     0.089046     0.509212    Uiso  ? Se
   Se5        1.0     0.010314     0.255676     0.583891    Uiso  ? Se
   Se6        1.0     0.175390     0.088917     0.678571    Uiso  ? Se
   Se7        1.0     0.953270     0.231599     0.268235    Uiso  ? Se
   Se8        1.0     0.838727     0.418883     0.346409    Uiso  ? Se
   Se9        1.0     0.020598     0.258562     0.439182    Uiso  ? Se
   Se10       1.0     0.677114     0.088199     0.508862    Uiso  ? Se
   Se11       1.0     0.511099     0.255915     0.583860    Uiso  ? Se
   Se12       1.0     0.675270     0.088881     0.678643    Uiso  ? Se
   Se13       1.0     0.487192     0.743293     0.270164    Uiso  ? Se
   Se14       1.0     0.309467     0.910834     0.341512    Uiso  ? Se
   Se15       1.0     0.503831     0.751087     0.436527    Uiso  ? Se
   Se16       1.0     0.177694     0.588904     0.509156    Uiso  ? Se
   Se17       1.0     0.010387     0.755360     0.583888    Uiso  ? Se
   Se18       1.0     0.175228     0.588852     0.678589    Uiso  ? Se
   Se19       1.0     0.953131     0.720795     0.268197    Uiso  ? Se
   Se20       1.0     0.816223     0.907620     0.346271    Uiso  ? Se
   Se21       1.0     0.020408     0.760270     0.439190    Uiso  ? Se
   Se22       1.0     0.677047     0.589072     0.508849    Uiso  ? Se
   Se23       1.0     0.510965     0.755835     0.583887    Uiso  ? Se
   Se24       1.0     0.675287     0.588932     0.678640    Uiso  ? Se
   In1        1.0     0.646709     0.075676     0.307288    Uiso  ? In
   In2        1.0     0.346812     0.418514     0.404907    Uiso  ? In
   In3        1.0     0.843965     0.422103     0.542335    Uiso  ? In
   In4        1.0     0.008458     0.255487     0.647339    Uiso  ? In
   In5        1.0     0.114975     0.057013     0.299902    Uiso  ? In
   In6        1.0     0.850246     0.424192     0.409379    Uiso  ? In
   In7        1.0     0.344342     0.422293     0.542610    Uiso  ? In
   In8        1.0     0.508859     0.255742     0.647353    Uiso  ? In
   In9        1.0     0.646620     0.570271     0.307258    Uiso  ? In
   In10       1.0     0.346701     0.926515     0.404951    Uiso  ? In
   In11       1.0     0.844470     0.922307     0.542519    Uiso  ? In
   In12       1.0     0.008462     0.755542     0.647339    Uiso  ? In
   In13       1.0     0.144132     0.571744     0.298275    Uiso  ? In
   In14       1.0     0.847765     0.923022     0.409656    Uiso  ? In
   In15       1.0     0.344375     0.922234     0.542605    Uiso  ? In
   In16       1.0     0.508646     0.755637     0.647372    Uiso  ? In
   O1         1.0     0.589744     0.294469     0.285158    Uiso  ? O
