
#======================================================================
# CRYSTAL DATA
#----------------------------------------------------------------------
data_VESTA_phase_1

_chemical_name_common                  'CONTCAR                               '
_cell_length_a                         8.108300
_cell_length_b                         8.108300
_cell_length_c                         40.000000
_cell_angle_alpha                      90.000000
_cell_angle_beta                       90.000000
_cell_angle_gamma                      120.000000
_cell_volume                           2277.457405
_space_group_name_H-M_alt              'P 1'
_space_group_IT_number                 1

loop_
_space_group_symop_operation_xyz
   'x, y, z'

loop_
   _atom_site_label
   _atom_site_occupancy
   _atom_site_fract_x
   _atom_site_fract_y
   _atom_site_fract_z
   _atom_site_adp_type
   _atom_site_U_iso_or_equiv
   _atom_site_type_symbol
   Se1        1.0     0.333111     0.166019     0.257123    Uiso  ? Se
   Se2        1.0     0.166125     0.332078     0.332468    Uiso  ? Se
   Se3        1.0     0.332950     0.165679     0.427764    Uiso  ? Se
   Se4        1.0     0.337881     0.174529     0.520626    Uiso  ? Se
   Se5        1.0     0.166785     0.343196     0.594081    Uiso  ? Se
   Se6        1.0     0.289735     0.146606     0.697247    Uiso  ? Se
   Se7        1.0     0.833063     0.166012     0.257124    Uiso  ? Se
   Se8        1.0     0.666107     0.332125     0.332491    Uiso  ? Se
   Se9        1.0     0.832978     0.165627     0.427748    Uiso  ? Se
   Se10       1.0     0.837835     0.177079     0.520509    Uiso  ? Se
   Se11       1.0     0.656375     0.336236     0.597079    Uiso  ? Se
   Se12       1.0     0.892440     0.173738     0.691167    Uiso  ? Se
   Se13       1.0     0.333022     0.665934     0.257133    Uiso  ? Se
   Se14       1.0     0.166414     0.832195     0.332472    Uiso  ? Se
   Se15       1.0     0.333339     0.665609     0.427701    Uiso  ? Se
   Se16       1.0     0.324945     0.682476     0.519895    Uiso  ? Se
   Se17       1.0     0.165590     0.840211     0.595876    Uiso  ? Se
   Se18       1.0     0.345084     0.690408     0.689646    Uiso  ? Se
   Se19       1.0     0.833073     0.665943     0.257134    Uiso  ? Se
   Se20       1.0     0.666409     0.832215     0.332444    Uiso  ? Se
   Se21       1.0     0.833317     0.665814     0.427695    Uiso  ? Se
   Se22       1.0     0.826003     0.672160     0.519966    Uiso  ? Se
   Se23       1.0     0.670256     0.839995     0.595437    Uiso  ? Se
   Se24       1.0     0.818426     0.653030     0.691538    Uiso  ? Se
   In1        1.0     0.499744     0.999294     0.290707    Uiso  ? In
   In2        1.0     0.166303     0.332287     0.396002    Uiso  ? In
   In3        1.0     0.990821     0.508117     0.554571    Uiso  ? In
   In4        1.0     0.217158     0.365002     0.656737    Uiso  ? In
   In5        1.0     0.999771     0.999321     0.290700    Uiso  ? In
   In6        1.0     0.666313     0.332299     0.396030    Uiso  ? In
   In7        1.0     0.489198     0.512343     0.552016    Uiso  ? In
   In8        1.0     0.724777     0.335998     0.659006    Uiso  ? In
   In9        1.0     0.499693     0.499301     0.290715    Uiso  ? In
   In10       1.0     0.166717     0.832423     0.396005    Uiso  ? In
   In11       1.0     0.001345     0.005000     0.553548    Uiso  ? In
   In12       1.0     0.149229     0.834150     0.659561    Uiso  ? In
   In13       1.0     0.999682     0.499269     0.290726    Uiso  ? In
   In14       1.0     0.666609     0.832460     0.395970    Uiso  ? In
   In15       1.0     0.506537     0.010625     0.554858    Uiso  ? In
   In16       1.0     0.680811     0.847377     0.659250    Uiso  ? In
   O1         1.0     0.516018     0.159090     0.694673    Uiso  ? O
