
#======================================================================
# CRYSTAL DATA
#----------------------------------------------------------------------
data_VESTA_phase_1

_chemical_name_common                  'CONTCAR                               '
_cell_length_a                         8.108300
_cell_length_b                         8.108300
_cell_length_c                         40.000000
_cell_angle_alpha                      90.000000
_cell_angle_beta                       90.000000
_cell_angle_gamma                      120.000000
_cell_volume                           2277.457405
_space_group_name_H-M_alt              'P 1'
_space_group_IT_number                 1

loop_
_space_group_symop_operation_xyz
   'x, y, z'

loop_
   _atom_site_label
   _atom_site_occupancy
   _atom_site_fract_x
   _atom_site_fract_y
   _atom_site_fract_z
   _atom_site_adp_type
   _atom_site_U_iso_or_equiv
   _atom_site_type_symbol
   Se1        1.0     0.486749     0.241665     0.267994    Uiso  ? Se
   Se2        1.0     0.321735     0.409258     0.343361    Uiso  ? Se
   Se3        1.0     0.495118     0.247061     0.438550    Uiso  ? Se
   Se4        1.0     0.169176     0.084471     0.509911    Uiso  ? Se
   Se5        1.0     0.002698     0.253733     0.584059    Uiso  ? Se
   Se6        1.0     0.179273     0.091735     0.674209    Uiso  ? Se
   Se7        1.0     0.986563     0.241575     0.268000    Uiso  ? Se
   Se8        1.0     0.821661     0.409162     0.343407    Uiso  ? Se
   Se9        1.0    -0.004663     0.247100     0.438561    Uiso  ? Se
   Se10       1.0     0.667875     0.082300     0.508931    Uiso  ? Se
   Se11       1.0     0.505729     0.253001     0.584251    Uiso  ? Se
   Se12       1.0     0.678230     0.089593     0.681460    Uiso  ? Se
   Se13       1.0     0.486657     0.741584     0.267993    Uiso  ? Se
   Se14       1.0     0.321775     0.909323     0.343365    Uiso  ? Se
   Se15       1.0     0.495276     0.747162     0.438471    Uiso  ? Se
   Se16       1.0     0.170857     0.585347     0.508887    Uiso  ? Se
   Se17       1.0     0.002538     0.749023     0.584004    Uiso  ? Se
   Se18       1.0     0.179331     0.591720     0.681411    Uiso  ? Se
   Se19       1.0     0.986574     0.741499     0.268002    Uiso  ? Se
   Se20       1.0     0.821770     0.909300     0.343360    Uiso  ? Se
   Se21       1.0    -0.004710     0.747337     0.438564    Uiso  ? Se
   Se22       1.0     0.667831     0.585226     0.508912    Uiso  ? Se
   Se23       1.0     0.504585     0.752415     0.585140    Uiso  ? Se
   Se24       1.0     0.678431     0.592246     0.681434    Uiso  ? Se
   In1        1.0     0.653135     0.074794     0.301644    Uiso  ? In
   In2        1.0     0.328569     0.413818     0.406945    Uiso  ? In
   In3        1.0     0.835530     0.417536     0.541884    Uiso  ? In
   In4        1.0     0.002755     0.267400     0.647697    Uiso  ? In
   In5        1.0     0.153196     0.074868     0.301607    Uiso  ? In
   In6        1.0     0.828643     0.413903     0.406999    Uiso  ? In
   In7        1.0     0.336509     0.419479     0.543004    Uiso  ? In
   In8        1.0     0.532033     0.267777     0.647797    Uiso  ? In
   In9        1.0     0.653207     0.574855     0.301645    Uiso  ? In
   In10       1.0     0.328546     0.913795     0.406940    Uiso  ? In
   In11       1.0     0.834257     0.916928     0.542972    Uiso  ? In
   In12       1.0     0.002949     0.739722     0.647665    Uiso  ? In
   In13       1.0     0.153199     0.574861     0.301633    Uiso  ? In
   In14       1.0     0.828624     0.913904     0.406929    Uiso  ? In
   In15       1.0     0.336556     0.916729     0.543014    Uiso  ? In
   In16       1.0     0.511665     0.757662     0.648974    Uiso  ? In
   O1         1.0     0.175741     0.089488     0.716386    Uiso  ? O
