
#======================================================================
# CRYSTAL DATA
#----------------------------------------------------------------------
data_VESTA_phase_1

_chemical_name_common                  'bi_Up3f                               '
_cell_length_a                         8.108300
_cell_length_b                         8.108300
_cell_length_c                         40.000000
_cell_angle_alpha                      90.000000
_cell_angle_beta                       90.000000
_cell_angle_gamma                      120.000000
_cell_volume                           2277.457405
_space_group_name_H-M_alt              'P 1'
_space_group_IT_number                 1

loop_
_space_group_symop_operation_xyz
   'x, y, z'

loop_
   _atom_site_label
   _atom_site_occupancy
   _atom_site_fract_x
   _atom_site_fract_y
   _atom_site_fract_z
   _atom_site_adp_type
   _atom_site_U_iso_or_equiv
   _atom_site_type_symbol
   Se1        1.0     0.115115     0.863238     0.268969    Uiso  ? Se
   Se2        1.0     0.948392     0.029913     0.344104    Uiso  ? Se
   Se3        1.0     0.114716     0.862853     0.438576    Uiso  ? Se
   Se4        1.0     0.280151     0.191630     0.510199    Uiso  ? Se
   Se5        1.0     0.116112     0.366263     0.582904    Uiso  ? Se
   Se6        1.0     0.259610     0.145910     0.693414    Uiso  ? Se
   Se7        1.0     0.615098     0.863246     0.268957    Uiso  ? Se
   Se8        1.0     0.448435     0.029911     0.344103    Uiso  ? Se
   Se9        1.0     0.614515     0.862435     0.438626    Uiso  ? Se
   Se10       1.0     0.779806     0.191299     0.509714    Uiso  ? Se
   Se11       1.0     0.619466     0.366256     0.582971    Uiso  ? Se
   Se12       1.0     0.786952     0.201750     0.677846    Uiso  ? Se
   Se13       1.0     0.115097     0.363326     0.268939    Uiso  ? Se
   Se14       1.0     0.948306     0.529715     0.344113    Uiso  ? Se
   Se15       1.0     0.114751     0.362825     0.438725    Uiso  ? Se
   Se16       1.0     0.282602     0.700076     0.509649    Uiso  ? Se
   Se17       1.0     0.118197     0.867398     0.587850    Uiso  ? Se
   Se18       1.0     0.285817     0.691046     0.681479    Uiso  ? Se
   Se19       1.0     0.615196     0.363293     0.268942    Uiso  ? Se
   Se20       1.0     0.448327     0.529712     0.344064    Uiso  ? Se
   Se21       1.0     0.614593     0.362811     0.438720    Uiso  ? Se
   Se22       1.0     0.786015     0.699894     0.509630    Uiso  ? Se
   Se23       1.0     0.614332     0.859404     0.585429    Uiso  ? Se
   Se24       1.0     0.776489     0.691021     0.681476    Uiso  ? Se
   In1        1.0     0.281768     0.696583     0.302381    Uiso  ? In
   In2        1.0     0.947934     0.029540     0.407438    Uiso  ? In
   In3        1.0     0.948457     0.528156     0.542390    Uiso  ? In
   In4        1.0     0.121097     0.381459     0.645819    Uiso  ? In
   In5        1.0     0.781737     0.696578     0.302372    Uiso  ? In
   In6        1.0     0.448107     0.029518     0.407436    Uiso  ? In
   In7        1.0     0.449367     0.530088     0.541809    Uiso  ? In
   In8        1.0     0.631359     0.381016     0.645907    Uiso  ? In
   In9        1.0     0.281810     0.196683     0.302343    Uiso  ? In
   In10       1.0     0.947922     0.529359     0.407444    Uiso  ? In
   In11       1.0     0.948009     0.028415     0.544159    Uiso  ? In
   In12       1.0     0.115965     0.860549     0.651763    Uiso  ? In
   In13       1.0     0.781791     0.196607     0.302374    Uiso  ? In
   In14       1.0     0.447857     0.529235     0.407384    Uiso  ? In
   In15       1.0     0.448829     0.028408     0.544251    Uiso  ? In
   In16       1.0     0.616051     0.860757     0.648996    Uiso  ? In
   O1         1.0     0.344290     0.317871     0.657345    Uiso  ? O
